grid_simulations/tests/Result_no_control/output_voltage_12.csv
# Result_no_control/output_voltage_12.csv run at 2000-01-01 14:00:00 EST on 963 nodes
node_name,voltA_mag,voltA_angle,voltB_mag,voltB_angle,voltC_mag,voltC_angle
SourceBus,6668.395609,0.000000,6668.395609,4.188790,6668.395609,2.094395
Bus1,248.861725,-0.553638,248.651673,3.639172,249.728856,1.550228
Bus2,248.469263,-0.553209,248.305339,3.639110,249.572178,1.550379
Bus3,248.428122,-0.553164,248.269031,3.639104,249.555753,1.550395
Bus4,248.389579,-0.553122,248.235016,3.639098,249.540365,1.550410
Bus5,248.355976,-0.553085,248.205359,3.639092,249.526949,1.550423
Bus6,248.303038,-0.553027,248.158639,3.639084,249.505814,1.550443
Bus7,244.700218,-0.549017,244.977243,3.638509,248.066849,1.551836
Bus8,244.538947,-0.548835,244.834755,3.638483,248.002411,1.551899
Bus9,244.404724,-0.548683,244.716159,3.638462,247.948779,1.551951
Bus10,244.286937,-0.548550,244.612083,3.638442,247.901713,1.551997
Bus11,244.199049,-0.548450,244.534422,3.638428,247.866594,1.552031
Bus12,244.116545,-0.548356,244.461518,3.638415,247.833625,1.552064
Bus13,244.065815,-0.548299,244.416688,3.638407,247.813353,1.552083
Bus14,243.939521,-0.548155,244.305083,3.638386,247.762884,1.552133
Bus15,242.916622,-0.546987,243.400990,3.638219,247.354066,1.552533
Bus16,242.916622,-0.546987,243.400990,3.638219,247.354066,1.552533
Bus17,241.676631,-0.545557,242.304632,3.638015,246.858358,1.553019
Bus18,242.916622,-0.546987,243.400990,3.638219,247.354066,1.552533
Bus19,241.591330,-0.545458,242.229196,3.638001,246.824252,1.553053
Bus20,242.916622,-0.546987,243.400990,3.638219,247.354066,1.552533
Bus21,241.495550,-0.545347,242.144490,3.637985,246.785956,1.553091
Bus22,242.916622,-0.546987,243.400990,3.638219,247.354066,1.552533
Bus23,241.339607,-0.545165,242.006573,3.637959,246.723602,1.553152
Bus24,242.916622,-0.546987,243.400990,3.638219,247.354066,1.552533
Bus25,241.055930,-0.544835,241.755668,3.637912,246.610169,1.553264
Bus26,242.916622,-0.546987,243.400990,3.638219,247.354066,1.552533
Bus27,240.645012,-0.544414,241.756941,3.637888,246.614676,1.553280
Bus28,237.980856,-0.541094,238.563631,3.638195,245.029298,1.554082
Bus29,242.916622,-0.546987,243.400990,3.638219,247.354066,1.552533
Bus30,240.588428,-0.544356,241.757116,3.637884,246.615296,1.553282
Bus31,240.589871,-0.544358,241.757112,3.637884,246.615280,1.553282
Bus32,237.162793,-0.540082,237.713864,3.638271,244.608473,1.554302
Bus33,242.916622,-0.546987,243.400990,3.638219,247.354066,1.552533
Bus34,240.458850,-0.544223,241.757517,3.637877,246.616717,1.553287
Bus35,240.588003,-0.544356,241.757117,3.637884,246.615301,1.553282
Bus36,237.167251,-0.540066,237.309733,3.638691,244.609630,1.554278
Bus37,234.559340,-0.537478,235.534534,3.638129,243.299983,1.555679
Bus38,242.916622,-0.546987,243.400990,3.638219,247.354066,1.552533
Bus39,240.585318,-0.544353,241.757126,3.637884,246.615330,1.553282
Bus40,237.167407,-0.540065,237.295618,3.638705,244.609670,1.554277
Bus41,237.167954,-0.540063,237.246001,3.638757,244.609812,1.554274
Bus42,232.753670,-0.535636,234.022228,3.638029,242.392252,1.556643
Bus43,234.559340,-0.537478,235.534534,3.638129,243.299983,1.555679
Bus44,242.916622,-0.546987,243.400990,3.638219,247.354066,1.552533
Bus45,240.581875,-0.544350,241.757136,3.637884,246.615368,1.553282
Bus46,237.167477,-0.540065,237.289256,3.638712,244.609688,1.554277
Bus47,237.169646,-0.540057,237.092655,3.638917,244.610251,1.554265
Bus48,231.389733,-0.534226,232.879444,3.637953,241.706469,1.557377
Bus49,234.559340,-0.537478,235.534534,3.638129,243.299983,1.555679
Bus50,242.916622,-0.546987,243.400990,3.638219,247.354066,1.552533
Bus51,240.573489,-0.544341,241.757162,3.637883,246.615460,1.553283
Bus52,237.167551,-0.540065,237.282513,3.638719,244.609707,1.554277
Bus53,231.193119,-0.534021,232.714678,3.637942,241.607603,1.557483
Bus54,231.389733,-0.534226,232.879444,3.637953,241.706469,1.557377
Bus55,234.559340,-0.537478,235.534534,3.638129,243.299983,1.555679
Bus56,242.916622,-0.546987,243.400990,3.638219,247.354066,1.552533
Bus57,240.566309,-0.544334,241.757185,3.637883,246.615539,1.553283
Bus58,237.167622,-0.540064,237.276091,3.638726,244.609726,1.554276
Bus59,230.302632,-0.533089,231.968331,3.637891,241.159804,1.557964
Bus60,231.389733,-0.534226,232.879444,3.637953,241.706469,1.557377
Bus61,234.559340,-0.537478,235.534534,3.638129,243.299983,1.555679
Bus62,242.916622,-0.546987,243.400990,3.638219,247.354066,1.552533
Bus63,240.531892,-0.544298,241.757291,3.637881,246.615916,1.553284
Bus64,237.167665,-0.540064,237.272245,3.638730,244.609737,1.554276
Bus65,230.149677,-0.532927,231.813642,3.637934,241.059472,1.558027
Bus66,229.700694,-0.532444,231.970298,3.637854,241.166362,1.557989
Bus67,231.389733,-0.534226,232.879444,3.637953,241.706469,1.557377
Bus68,234.559340,-0.537478,235.534534,3.638129,243.299983,1.555679
Bus69,242.916622,-0.546987,243.400990,3.638219,247.354066,1.552533
Bus70,240.410242,-0.544173,241.757668,3.637874,246.617250,1.553289
Bus71,237.167748,-0.540064,237.264700,3.638738,244.609758,1.554276
Bus72,228.343039,-0.530989,229.986086,3.638444,239.874160,1.558770
Bus73,229.553597,-0.532286,231.970779,3.637845,241.167965,1.557995
Bus74,229.553597,-0.532286,231.970779,3.637845,241.167965,1.557995
Bus75,231.389733,-0.534226,232.879444,3.637953,241.706469,1.557377
Bus76,234.559340,-0.537478,235.534534,3.638129,243.299983,1.555679
Bus77,242.916622,-0.546987,243.400990,3.638219,247.354066,1.552533
Bus78,237.168170,-0.540062,237.226458,3.638777,244.609868,1.554273
Bus79,227.713496,-0.530306,229.349062,3.638623,239.461021,1.559030
Bus80,231.389733,-0.534226,232.879444,3.637953,241.706469,1.557377
Bus81,234.559340,-0.537478,235.534534,3.638129,243.299983,1.555679
Bus82,242.916622,-0.546987,243.400990,3.638219,247.354066,1.552533
Bus83,237.169760,-0.540056,237.082360,3.638928,244.610280,1.554265
Bus84,227.576123,-0.530157,229.210043,3.638663,239.370863,1.559087
Bus85,231.389733,-0.534226,232.879444,3.637953,241.706469,1.557377
Bus86,234.559340,-0.537478,235.534534,3.638129,243.299983,1.555679
Bus87,242.916622,-0.546987,243.400990,3.638219,247.354066,1.552533
Bus88,227.297567,-0.529853,228.928136,3.638743,239.188039,1.559203
Bus89,231.389733,-0.534226,232.879444,3.637953,241.706469,1.557377
Bus90,234.559340,-0.537478,235.534534,3.638129,243.299983,1.555679
Bus91,242.916622,-0.546987,243.400990,3.638219,247.354066,1.552533
Bus92,227.034896,-0.529566,228.662286,3.638818,239.015631,1.559312
Bus93,234.559340,-0.537478,235.534534,3.638129,243.299983,1.555679
Bus94,242.916622,-0.546987,243.400990,3.638219,247.354066,1.552533
Bus95,226.882231,-0.529399,228.507764,3.638862,238.915422,1.559376
Bus96,234.559340,-0.537478,235.534534,3.638129,243.299983,1.555679
Bus97,242.916622,-0.546987,243.400990,3.638219,247.354066,1.552533
Bus98,226.781410,-0.529288,228.405715,3.638891,238.849241,1.559418
Bus99,234.559340,-0.537478,235.534534,3.638129,243.299983,1.555679
Bus100,242.916622,-0.546987,243.400990,3.638219,247.354066,1.552533
Bus101,226.642209,-0.529135,228.264813,3.638932,238.757866,1.559476
Bus102,234.559340,-0.537478,235.534534,3.638129,243.299983,1.555679
Bus103,242.916622,-0.546987,243.400990,3.638219,247.354066,1.552533
Bus104,226.642428,-0.529135,228.260938,3.638931,238.755662,1.559468
Bus105,226.548647,-0.529045,228.191131,3.638927,238.708681,1.559535
Bus106,234.559340,-0.537478,235.534534,3.638129,243.299983,1.555679
Bus107,226.642693,-0.529135,228.256249,3.638930,238.752997,1.559459
Bus108,226.495593,-0.528993,228.149349,3.638924,238.680791,1.559569
Bus109,234.559340,-0.537478,235.534534,3.638129,243.299983,1.555679
Bus110,226.643000,-0.529136,228.250815,3.638929,238.749907,1.559448
Bus111,224.402727,-0.526949,226.500763,3.638821,237.580545,1.560901
Bus112,234.559340,-0.537478,235.534534,3.638129,243.299983,1.555679
Bus113,226.643469,-0.529136,228.242529,3.638928,238.745195,1.559431
Bus114,224.193120,-0.526742,226.335611,3.638811,237.470348,1.561035
Bus115,234.559340,-0.537478,235.534534,3.638129,243.299983,1.555679
Bus116,226.644071,-0.529136,228.231877,3.638926,238.739139,1.559410
Bus117,224.191912,-0.526750,226.327122,3.638811,237.461232,1.561016
Bus118,223.555235,-0.526342,225.901291,3.638414,237.215684,1.561330
Bus119,234.559340,-0.537478,235.534534,3.638129,243.299983,1.555679
Bus120,226.644504,-0.529136,228.224229,3.638924,238.734791,1.559394
Bus121,224.191912,-0.526750,226.327122,3.638811,237.461232,1.561016
Bus122,224.191325,-0.526754,226.322989,3.638811,237.456794,1.561007
Bus123,222.404984,-0.525614,225.118143,3.637695,236.756484,1.561863
Bus124,234.559340,-0.537478,235.534534,3.638129,243.299983,1.555679
Bus125,226.645115,-0.529136,228.213424,3.638922,238.728647,1.559372
Bus126,224.191912,-0.526750,226.327122,3.638811,237.461232,1.561016
Bus127,224.188563,-0.526774,226.303574,3.638810,237.435944,1.560964
Bus128,221.887755,-0.525285,224.765999,3.637370,236.550003,1.562103
Bus129,234.559340,-0.537478,235.534534,3.638129,243.299983,1.555679
Bus130,226.645776,-0.529136,228.201733,3.638920,238.722000,1.559349
Bus131,224.191912,-0.526750,226.327122,3.638811,237.461232,1.561016
Bus132,224.045626,-0.526617,226.304052,3.638801,237.437497,1.560970
Bus133,224.223116,-0.526814,226.243682,3.638885,237.363795,1.560787
Bus134,221.733870,-0.525187,224.661231,3.637273,236.488572,1.562175
Bus135,234.559340,-0.537478,235.534534,3.638129,243.299983,1.555679
Bus136,226.646399,-0.529136,228.190707,3.638918,238.715732,1.559326
Bus137,224.191912,-0.526750,226.327122,3.638811,237.461232,1.561016
Bus138,224.033316,-0.526603,226.304093,3.638800,237.437631,1.560970
Bus139,224.248822,-0.526844,226.199126,3.638941,237.310125,1.560656
Bus140,221.560166,-0.525075,224.542972,3.637164,236.419230,1.562256
Bus141,234.559340,-0.537478,235.534534,3.638129,243.299983,1.555679
Bus142,226.647424,-0.529137,228.172579,3.638915,238.705426,1.559290
Bus143,224.191912,-0.526750,226.327122,3.638811,237.461232,1.561016
Bus144,224.021239,-0.526590,226.304133,3.638799,237.437762,1.560971
Bus145,224.266037,-0.526864,226.169289,3.638979,237.274186,1.560568
Bus146,221.396804,-0.524971,224.431753,3.637061,236.354017,1.562332
Bus147,234.559340,-0.537478,235.534534,3.638129,243.299983,1.555679
Bus148,226.652298,-0.529138,228.086385,3.638900,238.656427,1.559116
Bus149,224.191912,-0.526750,226.327122,3.638811,237.461232,1.561016
Bus150,224.011486,-0.526579,226.304166,3.638799,237.437868,1.560971
Bus151,224.270048,-0.526938,226.181395,3.639032,237.234242,1.560553
Bus152,224.270288,-0.526848,225.787859,3.639394,237.275249,1.560545
Bus153,221.206195,-0.524848,224.301986,3.636941,236.277927,1.562420
Bus154,234.559340,-0.537478,235.534534,3.638129,243.299983,1.555679
Bus155,226.653359,-0.529138,228.067608,3.638897,238.645754,1.559078
Bus156,224.191912,-0.526750,226.327122,3.638811,237.461232,1.561016
Bus157,223.996849,-0.526563,226.304215,3.638798,237.438027,1.560972
Bus158,224.280692,-0.527134,226.213507,3.639174,237.128310,1.560515
Bus159,224.270547,-0.526847,225.764644,3.639420,237.275314,1.560543
Bus160,221.151348,-0.524813,224.264646,3.636906,236.256033,1.562446
Bus161,234.559340,-0.537478,235.534534,3.638129,243.299983,1.555679
Bus162,226.658168,-0.529120,227.635588,3.639364,238.646964,1.559052
Bus163,226.647736,-0.529179,228.027291,3.638895,238.602408,1.558988
Bus164,224.191912,-0.526750,226.327122,3.638811,237.461232,1.561016
Bus165,223.979202,-0.526544,226.304274,3.638797,237.438219,1.560972
Bus166,224.284391,-0.527203,226.224662,3.639223,237.091514,1.560502
Bus167,224.270783,-0.526846,225.743436,3.639443,237.275373,1.560542
Bus168,220.839763,-0.524612,224.052520,3.636709,236.131652,1.562591
Bus169,234.559340,-0.537478,235.534534,3.638129,243.299983,1.555679
Bus170,226.659076,-0.529117,227.553977,3.639453,238.647193,1.559047
Bus171,226.640272,-0.529232,227.973765,3.638894,238.544865,1.558869
Bus172,224.191912,-0.526750,226.327122,3.638811,237.461232,1.561016
Bus173,223.965870,-0.526529,226.304318,3.638796,237.438364,1.560973
Bus174,224.284391,-0.527203,226.224662,3.639223,237.091514,1.560502
Bus175,224.285261,-0.527222,226.227871,3.639236,236.793614,1.560812
Bus176,224.270882,-0.526845,225.734626,3.639452,237.275398,1.560541
Bus177,220.663782,-0.524499,223.932714,3.636597,236.061403,1.562674
Bus178,226.660951,-0.529110,227.385604,3.639635,238.647665,1.559037
Bus179,226.637689,-0.529217,227.960758,3.638876,238.548321,1.558853
Bus180,226.640772,-0.529243,227.975606,3.638901,238.374109,1.559045
Bus181,224.191912,-0.526750,226.327122,3.638811,237.461232,1.561016
Bus182,223.950443,-0.526512,226.304370,3.638795,237.438532,1.560973
Bus183,224.284391,-0.527203,226.224662,3.639223,237.091514,1.560502
Bus184,224.285355,-0.527224,226.228217,3.639237,236.761441,1.560845
Bus185,224.271093,-0.526845,225.715636,3.639473,237.275451,1.560540
Bus186,220.533148,-0.524414,223.843780,3.636514,236.009256,1.562735
Bus187,226.627525,-0.529158,227.909571,3.638806,238.561923,1.558793
Bus188,226.642841,-0.529288,227.983226,3.638932,237.667466,1.559777
Bus189,224.191912,-0.526750,226.327122,3.638811,237.461232,1.561016
Bus190,223.935937,-0.526496,226.304419,3.638794,237.438689,1.560974
Bus191,224.284391,-0.527203,226.224662,3.639223,237.091514,1.560502
Bus192,224.284391,-0.527203,226.224662,3.639223,237.091514,1.560502
Bus193,224.285446,-0.527226,226.228552,3.639239,236.730322,1.560878
Bus194,224.271632,-0.526843,225.667269,3.639526,237.275586,1.560537
Bus195,220.415703,-0.524339,223.763826,3.636440,235.962375,1.562789
Bus196,226.609380,-0.529052,227.818183,3.638682,238.586210,1.558684
Bus197,226.643044,-0.529292,227.983970,3.638935,237.598425,1.559848
Bus198,226.642958,-0.529291,227.983656,3.638934,237.627555,1.559818
Bus199,224.191912,-0.526750,226.327122,3.638811,237.461232,1.561016
Bus200,223.920330,-0.526479,226.304471,3.638793,237.438859,1.560975
...
SourceBus_1,6637.399351,-0.006776,6640.981242,4.183556,6648.055697,2.087924
LOAD1,240.458850,-0.544223,241.757517,3.637877,246.616717,1.553287
LOAD2,237.169646,-0.540057,237.092655,3.638917,244.610251,1.554265
LOAD3,240.410242,-0.544173,241.757668,3.637874,246.617250,1.553289
LOAD4,229.553597,-0.532286,231.970779,3.637845,241.167965,1.557995
LOAD5,229.553597,-0.532286,231.970779,3.637845,241.167965,1.557995
LOAD6,237.169760,-0.540056,237.082360,3.638928,244.610280,1.554265
LOAD7,226.660951,-0.529110,227.385604,3.639635,238.647665,1.559037
LOAD8,226.643555,-0.529304,227.985853,3.638943,237.423877,1.560030
LOAD9,225.925861,-0.528307,227.820448,3.638639,238.593636,1.558713
LOAD10,226.649744,-0.528891,226.530199,3.639954,238.597974,1.558462
LOAD11,226.649744,-0.528891,226.530199,3.639954,238.597974,1.558462
LOAD12,226.643692,-0.529306,227.986356,3.638945,237.377152,1.560078
LOAD13,224.278156,-0.526818,225.082046,3.640167,237.277218,1.560502
LOAD14,223.651916,-0.526183,226.305368,3.638776,237.441776,1.560986
LOAD15,224.277293,-0.526821,225.159503,3.640082,237.277002,1.560506
LOAD16,224.287280,-0.527266,226.235321,3.639266,236.102049,1.561534
LOAD17,224.286888,-0.527257,226.233873,3.639260,236.236473,1.561393
LOAD18,215.445283,-0.518506,220.442661,3.632214,234.698232,1.565477
LOAD19,218.635948,-0.523220,222.502609,3.635419,234.667402,1.564127
LOAD20,215.737048,-0.519586,221.278587,3.633155,235.106470,1.564704
LOAD21,218.720096,-0.522971,222.989590,3.635678,235.513309,1.563347
LOAD22,215.607858,-0.519438,221.279042,3.633147,235.107870,1.564709
LOAD23,214.752941,-0.516823,219.256463,3.631987,235.360874,1.565003
LOAD24,217.383126,-0.522437,221.279146,3.635240,233.599333,1.564559
LOAD25,208.213674,-0.505077,216.792666,3.623656,236.708382,1.567522
LOAD26,215.137886,-0.518937,217.659623,3.635167,233.216825,1.562495
LOAD27,216.908697,-0.522081,220.639216,3.635403,232.959112,1.564642
LOAD28,216.909136,-0.522091,220.640839,3.635410,232.807454,1.564802
LOAD29,207.756709,-0.503037,215.673942,3.623792,236.713599,1.566602
LOAD30,208.259141,-0.505131,216.792490,3.623659,236.707895,1.567520
LOAD31,207.767933,-0.503050,215.673898,3.623793,236.713479,1.566601
LOAD32,214.541960,-0.518373,217.526888,3.634376,232.484862,1.563137
LOAD33,209.388016,-0.503751,214.536540,3.626043,235.763365,1.565150
LOAD34,209.799047,-0.508116,217.638468,3.625140,236.443121,1.567241
LOAD35,209.486564,-0.503285,213.559357,3.627105,236.315744,1.564055
LOAD36,209.311401,-0.503511,213.387748,3.626981,236.464610,1.564730
LOAD37,209.311707,-0.503509,213.361125,3.627011,236.464677,1.564728
LOAD38,213.814355,-0.517364,216.363176,3.634279,232.861707,1.562675
LOAD39,213.248364,-0.516833,216.207297,3.633645,231.678965,1.563451
LOAD40,212.863113,-0.515621,214.896215,3.633977,232.489782,1.562024
LOAD41,211.944272,-0.512276,212.087009,3.635443,232.084375,1.560481
LOAD42,213.248455,-0.516835,216.207645,3.633647,231.646410,1.563486
LOAD43,211.367110,-0.511880,212.677499,3.634493,230.546104,1.561995
LOAD44,214.925131,-0.518652,217.220110,3.635285,233.133637,1.562454
LOAD45,211.943816,-0.512278,212.127350,3.635396,232.084265,1.560483
LOAD46,211.383900,-0.514633,216.763420,3.633289,232.841684,1.562922
LOAD47,211.366965,-0.511876,212.676927,3.634491,230.599523,1.561938
LOAD48,211.477839,-0.514743,216.763083,3.633296,232.840672,1.562918
LOAD49,211.292090,-0.514526,216.763750,3.633283,232.842672,1.562926
LOAD50,210.910678,-0.507922,209.628329,3.635643,232.135226,1.558680
LOAD51,210.999475,-0.512658,214.635026,3.632815,232.452305,1.561966
LOAD52,209.466644,-0.507760,211.674603,3.633328,232.058975,1.560257
LOAD53,210.910678,-0.507922,209.549665,3.635738,232.135226,1.558680
LOAD54,210.743893,-0.512359,214.635953,3.632798,232.455049,1.561977
LOAD55,209.441148,-0.507678,211.679079,3.633247,232.071944,1.560309
